Circuit: * C:\Users\suh\Desktop\P\Sim\Draft1.asc

c1: Increased Cpar to 4.7e-13
c2: Increased Cpar to 4.7e-13
.OP point found by inspection.

Date: Sat May  6 22:18:09 2023
Total elapsed time: 38.853 seconds.

tnom = 27
temp = 27
method = modified trap
totiter = 7976187
traniter = 7976187
tranpoints = 2910614
accept = 1993388
rejected = 917226
matrix size = 16
fillins = 12
solver = Normal
Avg thread counts: 1.0/1.0/1.0/1.0
Matrix Compiler1:      77 opcodes  0.7/[0.5]/0.5
Matrix Compiler2: 1.46 KB object code size  0.3/0.5/[0.2]

